  
       XFOIL         Version 6.97
  
 Calculated polar for: AG45c                                           
  
 1 1 Reynolds number fixed          Mach number fixed         
  
 xtrf =   1.000 (top)        1.000 (bottom)  
 Mach =   0.000     Re =     0.970 e 6     Ncrit =  11.000
  
   alpha    CL        CD       CDp       CM     Top_Xtr  Bot_Xtr
  ------ -------- --------- --------- -------- -------- --------
   0.000   0.3000   0.00422   0.00089  -0.0601   0.6875   1.0000
   0.100   0.3112   0.00427   0.00089  -0.0601   0.6767   1.0000
   0.200   0.3224   0.00432   0.00088  -0.0600   0.6662   1.0000
   0.300   0.3335   0.00437   0.00088  -0.0600   0.6558   1.0000
   0.400   0.3447   0.00443   0.00088  -0.0599   0.6454   1.0000
   0.500   0.3558   0.00449   0.00088  -0.0599   0.6351   1.0000
   0.600   0.3670   0.00454   0.00088  -0.0599   0.6245   1.0000
   0.700   0.3782   0.00459   0.00089  -0.0598   0.6143   1.0000
   0.800   0.3894   0.00465   0.00089  -0.0598   0.6044   1.0000
   0.900   0.4005   0.00471   0.00090  -0.0597   0.5944   1.0000
   1.000   0.4117   0.00476   0.00091  -0.0597   0.5842   1.0000
   1.100   0.4229   0.00482   0.00092  -0.0597   0.5747   1.0000
   1.200   0.4340   0.00488   0.00093  -0.0596   0.5653   1.0000
   1.300   0.4452   0.00494   0.00094  -0.0596   0.5556   1.0000
   1.400   0.4564   0.00499   0.00096  -0.0596   0.5463   1.0000
   1.500   0.4676   0.00505   0.00098  -0.0595   0.5375   1.0000
   1.600   0.4787   0.00512   0.00100  -0.0595   0.5283   1.0000
   1.700   0.4899   0.00517   0.00102  -0.0595   0.5195   1.0000
   1.800   0.5010   0.00523   0.00104  -0.0595   0.5111   1.0000
   1.900   0.5122   0.00529   0.00106  -0.0594   0.5023   1.0000
   2.000   0.5234   0.00535   0.00108  -0.0594   0.4939   1.0000
   2.100   0.5345   0.00542   0.00110  -0.0594   0.4857   1.0000
   2.200   0.5457   0.00547   0.00113  -0.0594   0.4771   1.0000
   2.300   0.5568   0.00553   0.00116  -0.0593   0.4690   1.0000
   2.500   0.5791   0.00566   0.00121  -0.0593   0.4527   1.0000
   2.600   0.5902   0.00572   0.00125  -0.0592   0.4446   1.0000
   2.700   0.6013   0.00579   0.00129  -0.0592   0.4359   1.0000
   2.800   0.6124   0.00585   0.00132  -0.0592   0.4277   1.0000
   2.900   0.6235   0.00593   0.00136  -0.0592   0.4196   1.0000
   3.000   0.6346   0.00598   0.00139  -0.0591   0.4111   1.0000
   3.100   0.6457   0.00606   0.00143  -0.0591   0.4025   1.0000
   3.300   0.6678   0.00621   0.00151  -0.0590   0.3841   1.0000
   3.400   0.6789   0.00628   0.00155  -0.0590   0.3756   1.0000
   3.500   0.6898   0.00637   0.00161  -0.0590   0.3663   1.0000
   3.600   0.7009   0.00645   0.00166  -0.0589   0.3567   1.0000
   3.700   0.7119   0.00653   0.00171  -0.0589   0.3472   1.0000
   3.800   0.7228   0.00663   0.00176  -0.0589   0.3380   1.0000
   3.900   0.7338   0.00671   0.00182  -0.0588   0.3289   1.0000
   4.000   0.7448   0.00680   0.00187  -0.0588   0.3197   1.0000
   4.100   0.7557   0.00690   0.00193  -0.0588   0.3100   1.0000
   4.200   0.7665   0.00701   0.00200  -0.0587   0.2997   1.0000
   4.300   0.7775   0.00710   0.00206  -0.0587   0.2898   1.0000
   4.400   0.7884   0.00720   0.00213  -0.0587   0.2805   1.0000
   4.500   0.7992   0.00731   0.00221  -0.0586   0.2704   1.0000
   4.600   0.8100   0.00744   0.00228  -0.0586   0.2599   1.0000
   4.700   0.8208   0.00754   0.00235  -0.0585   0.2498   1.0000
   4.800   0.8316   0.00765   0.00243  -0.0585   0.2407   1.0000
   4.900   0.8424   0.00777   0.00251  -0.0584   0.2309   1.0000
   5.000   0.8531   0.00791   0.00260  -0.0584   0.2205   1.0000
   5.100   0.8638   0.00803   0.00269  -0.0583   0.2106   1.0000
   5.200   0.8746   0.00815   0.00277  -0.0583   0.2017   1.0000
   5.300   0.8853   0.00828   0.00287  -0.0582   0.1926   1.0000
   5.400   0.8959   0.00843   0.00298  -0.0582   0.1828   1.0000
   5.500   0.9066   0.00855   0.00308  -0.0581   0.1739   1.0000
   5.600   0.9172   0.00869   0.00318  -0.0581   0.1651   1.0000
   5.800   0.9384   0.00898   0.00339  -0.0579   0.1481   1.0000
   5.900   0.9490   0.00912   0.00351  -0.0579   0.1403   1.0000
   6.000   0.9595   0.00928   0.00362  -0.0578   0.1325   1.0000
   6.100   0.9702   0.00941   0.00374  -0.0577   0.1255   1.0000
   6.200   0.9806   0.00958   0.00387  -0.0577   0.1176   1.0000
   6.300   0.9912   0.00971   0.00399  -0.0576   0.1113   1.0000
   6.400   1.0016   0.00988   0.00412  -0.0575   0.1043   1.0000
   6.500   1.0121   0.01002   0.00425  -0.0574   0.0981   1.0000
   6.600   1.0226   0.01019   0.00438  -0.0574   0.0916   1.0000
   6.700   1.0330   0.01034   0.00452  -0.0573   0.0857   1.0000
   6.800   1.0434   0.01051   0.00466  -0.0572   0.0799   1.0000
   6.900   1.0538   0.01068   0.00480  -0.0571   0.0743   1.0000
   7.000   1.0640   0.01086   0.00496  -0.0570   0.0684   1.0000
   7.100   1.0743   0.01103   0.00511  -0.0569   0.0631   1.0000
   7.200   1.0845   0.01123   0.00528  -0.0568   0.0573   1.0000
   7.300   1.0948   0.01141   0.00544  -0.0567   0.0528   1.0000
   7.400   1.1048   0.01165   0.00566  -0.0566   0.0471   1.0000
   7.500   1.1151   0.01180   0.00582  -0.0565   0.0437   1.0000
   7.600   1.1248   0.01210   0.00607  -0.0563   0.0380   1.0000
   7.700   1.1352   0.01225   0.00623  -0.0562   0.0355   1.0000
   7.800   1.1451   0.01249   0.00644  -0.0560   0.0319   1.0000
   8.000   1.1650   0.01294   0.00691  -0.0557   0.0262   1.0000
   8.100   1.1748   0.01318   0.00714  -0.0556   0.0239   1.0000
   8.200   1.1837   0.01366   0.00763  -0.0552   0.0205   1.0000
   8.300   1.1940   0.01378   0.00777  -0.0551   0.0198   1.0000
   8.400   1.2041   0.01396   0.00797  -0.0550   0.0187   1.0000
   8.500   1.2140   0.01418   0.00819  -0.0549   0.0175   1.0000
   8.600   1.2232   0.01454   0.00855  -0.0546   0.0160   1.0000
   8.700   1.2313   0.01511   0.00921  -0.0542   0.0145   1.0000
   8.800   1.2416   0.01523   0.00934  -0.0541   0.0141   1.0000
   8.900   1.2516   0.01540   0.00953  -0.0540   0.0135   1.0000
   9.000   1.2613   0.01561   0.00976  -0.0538   0.0129   1.0000
   9.100   1.2709   0.01585   0.01002  -0.0536   0.0123   1.0000
   9.200   1.2802   0.01613   0.01032  -0.0534   0.0117   1.0000
   9.300   1.2887   0.01657   0.01079  -0.0531   0.0110   1.0000
   9.400   1.2937   0.01765   0.01199  -0.0523   0.0102   1.0000
   9.500   1.3035   0.01783   0.01220  -0.0521   0.0100   1.0000
   9.600   1.3131   0.01803   0.01242  -0.0519   0.0098   1.0000
   9.700   1.3223   0.01828   0.01271  -0.0517   0.0095   1.0000
   9.800   1.3314   0.01857   0.01303  -0.0515   0.0093   1.0000
   9.900   1.3402   0.01889   0.01338  -0.0512   0.0090   1.0000
  10.000   1.3489   0.01921   0.01374  -0.0509   0.0087   1.0000
  10.100   1.3575   0.01954   0.01410  -0.0506   0.0084   1.0000
  10.200   1.3660   0.01989   0.01447  -0.0504   0.0082   1.0000
  10.300   1.3742   0.02026   0.01487  -0.0500   0.0080   1.0000
  10.400   1.3819   0.02070   0.01537  -0.0497   0.0077   1.0000
  10.500   1.3884   0.02131   0.01603  -0.0492   0.0075   1.0000
  10.600   1.3929   0.02221   0.01701  -0.0485   0.0073   1.0000
  10.700   1.3938   0.02360   0.01852  -0.0474   0.0070   1.0000
  10.800   1.3953   0.02488   0.01992  -0.0463   0.0069   1.0000
  10.900   1.4039   0.02509   0.02017  -0.0461   0.0068   1.0000
  11.000   1.4121   0.02537   0.02049  -0.0458   0.0067   1.0000
  11.100   1.4197   0.02571   0.02087  -0.0454   0.0066   1.0000
  11.200   1.4269   0.02610   0.02130  -0.0450   0.0065   1.0000
  11.300   1.4337   0.02654   0.02178  -0.0446   0.0063   1.0000
  11.400   1.4400   0.02701   0.02230  -0.0441   0.0062   1.0000
  11.500   1.4459   0.02751   0.02285  -0.0436   0.0061   1.0000
  11.600   1.4514   0.02804   0.02343  -0.0430   0.0060   1.0000
  11.700   1.4563   0.02862   0.02406  -0.0425   0.0059   1.0000
  11.800   1.4606   0.02925   0.02475  -0.0418   0.0058   1.0000
  11.900   1.4644   0.02990   0.02546  -0.0411   0.0057   1.0000
  12.000   1.4678   0.03057   0.02618  -0.0405   0.0056   1.0000
  12.100   1.4707   0.03126   0.02693  -0.0397   0.0055   1.0000
  12.200   1.4726   0.03195   0.02768  -0.0389   0.0055   1.0000
  12.300   1.4731   0.03264   0.02842  -0.0378   0.0054   1.0000
  12.400   1.4730   0.03338   0.02921  -0.0368   0.0054   1.0000
  12.500   1.4724   0.03416   0.03005  -0.0358   0.0054   1.0000
  12.600   1.4714   0.03502   0.03096  -0.0350   0.0053   1.0000
  12.700   1.4702   0.03594   0.03194  -0.0343   0.0053   1.0000
  12.800   1.4686   0.03695   0.03301  -0.0337   0.0052   1.0000
  13.000   1.4647   0.03925   0.03545  -0.0330   0.0052   1.0000
  13.100   1.4623   0.04056   0.03682  -0.0330   0.0052   1.0000
  13.200   1.4597   0.04199   0.03830  -0.0331   0.0051   1.0000
  13.300   1.4568   0.04353   0.03991  -0.0334   0.0051   1.0000
  13.400   1.4536   0.04520   0.04164  -0.0338   0.0051   1.0000
  13.500   1.4500   0.04699   0.04350  -0.0344   0.0051   1.0000
  13.600   1.4462   0.04891   0.04548  -0.0352   0.0051   1.0000
  13.700   1.4420   0.05095   0.04759  -0.0361   0.0050   1.0000
  13.800   1.4375   0.05312   0.04983  -0.0372   0.0050   1.0000
  13.900   1.4325   0.05540   0.05218  -0.0383   0.0050   1.0000
  14.000   1.4272   0.05780   0.05464  -0.0395   0.0050   1.0000
  14.100   1.4215   0.06031   0.05722  -0.0409   0.0050   1.0000
  14.200   1.4155   0.06292   0.05990  -0.0423   0.0050   1.0000
  14.300   1.4091   0.06562   0.06267  -0.0437   0.0050   1.0000
  14.400   1.4022   0.06843   0.06553  -0.0452   0.0050   1.0000
  14.500   1.3951   0.07132   0.06849  -0.0468   0.0050   1.0000
  14.600   1.3875   0.07432   0.07155  -0.0484   0.0050   1.0000
  14.700   1.3796   0.07739   0.07469  -0.0500   0.0050   1.0000
  14.800   1.3712   0.08056   0.07792  -0.0517   0.0051   1.0000
  14.900   1.3624   0.08383   0.08126  -0.0534   0.0051   1.0000
  15.000   1.3533   0.08720   0.08469  -0.0551   0.0051   1.0000
