  
       XFOIL         Version 6.97
  
 Calculated polar for: HT 14                                           
  
 1 1 Reynolds number fixed          Mach number fixed         
  
 xtrf =   1.000 (top)        1.000 (bottom)  
 Mach =   0.000     Re =     0.970 e 6     Ncrit =   9.000
  
   alpha    CL        CD       CDp       CM     Top_Xtr  Bot_Xtr
  ------ -------- --------- --------- -------- -------- --------
   0.000   0.0001   0.00600   0.00090  -0.0000   0.5439   0.5442
   0.100   0.0112   0.00599   0.00090   0.0000   0.5236   0.5676
   0.200   0.0222   0.00596   0.00090   0.0001   0.5048   0.5939
   0.300   0.0332   0.00593   0.00090   0.0001   0.4870   0.6232
   0.400   0.0441   0.00588   0.00091   0.0002   0.4700   0.6562
   0.500   0.0549   0.00582   0.00092   0.0003   0.4535   0.6916
   0.600   0.0656   0.00575   0.00093   0.0005   0.4381   0.7279
   0.700   0.0761   0.00569   0.00095   0.0007   0.4232   0.7644
   0.800   0.0864   0.00564   0.00097   0.0010   0.4078   0.8000
   0.900   0.0963   0.00560   0.00099   0.0014   0.3921   0.8342
   1.000   0.1056   0.00555   0.00101   0.0019   0.3770   0.8689
   1.100   0.1142   0.00550   0.00103   0.0027   0.3636   0.9046
   1.200   0.1231   0.00549   0.00104   0.0035   0.3509   0.9400
   1.300   0.1368   0.00553   0.00106   0.0031   0.3361   0.9701
   1.400   0.1537   0.00559   0.00107   0.0019   0.3195   0.9899
   1.500   0.1686   0.00567   0.00108   0.0011   0.3039   1.0000
   1.600   0.1798   0.00574   0.00110   0.0012   0.2911   1.0000
   1.700   0.1909   0.00582   0.00112   0.0012   0.2783   1.0000
   1.800   0.2020   0.00589   0.00114   0.0013   0.2658   1.0000
   1.900   0.2132   0.00596   0.00117   0.0013   0.2543   1.0000
   2.000   0.2243   0.00604   0.00119   0.0014   0.2424   1.0000
   2.100   0.2355   0.00610   0.00122   0.0014   0.2325   1.0000
   2.200   0.2467   0.00618   0.00125   0.0015   0.2224   1.0000
   2.300   0.2579   0.00625   0.00128   0.0015   0.2126   1.0000
   2.400   0.2691   0.00633   0.00131   0.0016   0.2032   1.0000
   2.500   0.2803   0.00640   0.00135   0.0016   0.1939   1.0000
   2.600   0.2915   0.00648   0.00138   0.0016   0.1854   1.0000
   2.700   0.3027   0.00655   0.00142   0.0017   0.1775   1.0000
   2.800   0.3139   0.00663   0.00146   0.0017   0.1696   1.0000
   2.900   0.3252   0.00669   0.00150   0.0018   0.1639   1.0000
   3.000   0.3364   0.00677   0.00154   0.0018   0.1570   1.0000
   3.100   0.3476   0.00684   0.00159   0.0019   0.1511   1.0000
   3.200   0.3589   0.00690   0.00164   0.0019   0.1458   1.0000
   3.300   0.3700   0.00699   0.00168   0.0020   0.1395   1.0000
   3.400   0.3813   0.00706   0.00173   0.0020   0.1347   1.0000
   3.500   0.3926   0.00712   0.00178   0.0021   0.1307   1.0000
   3.600   0.4038   0.00720   0.00183   0.0021   0.1257   1.0000
   3.700   0.4149   0.00729   0.00189   0.0021   0.1200   1.0000
   3.800   0.4262   0.00734   0.00194   0.0022   0.1176   1.0000
   3.900   0.4375   0.00740   0.00199   0.0022   0.1141   1.0000
   4.000   0.4487   0.00749   0.00205   0.0023   0.1103   1.0000
   4.100   0.4598   0.00759   0.00212   0.0023   0.1057   1.0000
   4.200   0.4711   0.00764   0.00218   0.0024   0.1033   1.0000
   4.300   0.4824   0.00770   0.00224   0.0024   0.1007   1.0000
   4.400   0.4935   0.00778   0.00230   0.0025   0.0973   1.0000
   4.500   0.5047   0.00787   0.00237   0.0025   0.0933   1.0000
   4.600   0.5159   0.00796   0.00244   0.0026   0.0899   1.0000
   4.700   0.5271   0.00802   0.00250   0.0026   0.0876   1.0000
   4.800   0.5383   0.00809   0.00257   0.0027   0.0844   1.0000
   4.900   0.5494   0.00820   0.00264   0.0027   0.0804   1.0000
   5.000   0.5606   0.00830   0.00273   0.0028   0.0769   1.0000
   5.100   0.5718   0.00836   0.00279   0.0028   0.0746   1.0000
   5.200   0.5829   0.00845   0.00287   0.0029   0.0715   1.0000
   5.300   0.5940   0.00857   0.00295   0.0029   0.0677   1.0000
   5.400   0.6051   0.00866   0.00304   0.0030   0.0649   1.0000
   5.500   0.6163   0.00874   0.00312   0.0030   0.0623   1.0000
   5.600   0.6273   0.00886   0.00321   0.0031   0.0592   1.0000
   5.700   0.6383   0.00899   0.00333   0.0031   0.0558   1.0000
   5.800   0.6495   0.00907   0.00341   0.0032   0.0539   1.0000
   5.900   0.6605   0.00917   0.00350   0.0032   0.0513   1.0000
   6.000   0.6715   0.00933   0.00363   0.0033   0.0480   1.0000
   6.100   0.6826   0.00942   0.00372   0.0033   0.0462   1.0000
   6.200   0.6936   0.00952   0.00382   0.0034   0.0441   1.0000
   6.300   0.7045   0.00966   0.00394   0.0034   0.0417   1.0000
   6.400   0.7155   0.00980   0.00407   0.0035   0.0396   1.0000
   6.500   0.7265   0.00990   0.00418   0.0036   0.0381   1.0000
   6.600   0.7375   0.01002   0.00430   0.0036   0.0363   1.0000
   6.700   0.7483   0.01019   0.00445   0.0037   0.0344   1.0000
   6.800   0.7593   0.01031   0.00458   0.0038   0.0330   1.0000
   6.900   0.7703   0.01042   0.00470   0.0038   0.0317   1.0000
   7.000   0.7812   0.01056   0.00483   0.0039   0.0303   1.0000
   7.100   0.7919   0.01075   0.00501   0.0040   0.0285   1.0000
   7.200   0.8029   0.01087   0.00514   0.0040   0.0275   1.0000
   7.300   0.8138   0.01099   0.00528   0.0041   0.0263   1.0000
   7.400   0.8246   0.01114   0.00542   0.0042   0.0251   1.0000
   7.500   0.8351   0.01138   0.00565   0.0043   0.0235   1.0000
   7.600   0.8461   0.01148   0.00577   0.0043   0.0227   1.0000
   7.700   0.8569   0.01161   0.00591   0.0044   0.0217   1.0000
   7.800   0.8676   0.01178   0.00608   0.0045   0.0207   1.0000
   7.900   0.8780   0.01205   0.00634   0.0046   0.0194   1.0000
   8.000   0.8889   0.01216   0.00648   0.0047   0.0188   1.0000
   8.100   0.8997   0.01231   0.00663   0.0047   0.0180   1.0000
   8.200   0.9103   0.01248   0.00681   0.0048   0.0172   1.0000
   8.300   0.9208   0.01271   0.00704   0.0049   0.0164   1.0000
   8.400   0.9311   0.01298   0.00734   0.0050   0.0157   1.0000
   8.500   0.9418   0.01313   0.00751   0.0051   0.0152   1.0000
   8.600   0.9524   0.01330   0.00770   0.0052   0.0147   1.0000
   8.700   0.9630   0.01348   0.00790   0.0053   0.0142   1.0000
   8.800   0.9734   0.01370   0.00813   0.0054   0.0137   1.0000
   8.900   0.9836   0.01399   0.00843   0.0055   0.0132   1.0000
   9.000   0.9934   0.01438   0.00885   0.0056   0.0127   1.0000
   9.100   1.0039   0.01456   0.00907   0.0058   0.0124   1.0000
   9.200   1.0143   0.01476   0.00930   0.0059   0.0122   1.0000
   9.300   1.0246   0.01498   0.00955   0.0060   0.0119   1.0000
   9.400   1.0349   0.01521   0.00980   0.0061   0.0116   1.0000
   9.500   1.0451   0.01544   0.01006   0.0062   0.0113   1.0000
   9.600   1.0552   0.01568   0.01033   0.0063   0.0111   1.0000
   9.700   1.0653   0.01595   0.01061   0.0064   0.0109   1.0000
   9.800   1.0752   0.01625   0.01094   0.0065   0.0107   1.0000
   9.900   1.0848   0.01662   0.01134   0.0067   0.0104   1.0000
  10.000   1.0937   0.01713   0.01191   0.0069   0.0102   1.0000
  10.100   1.1024   0.01771   0.01254   0.0070   0.0099   1.0000
  10.200   1.1123   0.01796   0.01284   0.0072   0.0099   1.0000
  10.300   1.1221   0.01824   0.01315   0.0073   0.0098   1.0000
  10.400   1.1318   0.01853   0.01348   0.0074   0.0097   1.0000
  10.500   1.1414   0.01884   0.01384   0.0076   0.0096   1.0000
  10.600   1.1509   0.01917   0.01421   0.0077   0.0095   1.0000
  10.700   1.1603   0.01951   0.01459   0.0079   0.0094   1.0000
  10.800   1.1696   0.01986   0.01499   0.0080   0.0093   1.0000
  10.900   1.1788   0.02023   0.01539   0.0082   0.0092   1.0000
  11.000   1.1879   0.02060   0.01581   0.0084   0.0091   1.0000
  11.100   1.1969   0.02098   0.01624   0.0085   0.0090   1.0000
  11.200   1.2058   0.02137   0.01667   0.0087   0.0089   1.0000
  11.300   1.2146   0.02177   0.01711   0.0088   0.0088   1.0000
  11.400   1.2234   0.02218   0.01756   0.0090   0.0087   1.0000
  11.500   1.2320   0.02259   0.01802   0.0092   0.0086   1.0000
  11.600   1.2404   0.02302   0.01849   0.0093   0.0085   1.0000
  11.700   1.2488   0.02347   0.01897   0.0095   0.0084   1.0000
  11.800   1.2569   0.02393   0.01948   0.0097   0.0083   1.0000
  11.900   1.2648   0.02443   0.02003   0.0098   0.0082   1.0000
  12.000   1.2724   0.02497   0.02061   0.0100   0.0081   1.0000
  12.100   1.2795   0.02557   0.02126   0.0102   0.0081   1.0000
  12.200   1.2860   0.02625   0.02201   0.0104   0.0080   1.0000
  12.300   1.2917   0.02704   0.02286   0.0106   0.0079   1.0000
  12.400   1.2963   0.02799   0.02389   0.0109   0.0078   1.0000
  12.500   1.2993   0.02914   0.02513   0.0111   0.0077   1.0000
  12.600   1.3003   0.03055   0.02666   0.0113   0.0076   1.0000
  12.700   1.2988   0.03223   0.02848   0.0116   0.0076   1.0000
  12.800   1.3027   0.03311   0.02942   0.0117   0.0075   1.0000
  12.900   1.3067   0.03395   0.03033   0.0118   0.0075   1.0000
  13.000   1.3099   0.03486   0.03131   0.0119   0.0075   1.0000
  13.100   1.3122   0.03585   0.03238   0.0119   0.0075   1.0000
  13.200   1.3134   0.03696   0.03355   0.0118   0.0075   1.0000
  13.300   1.3122   0.03815   0.03482   0.0118   0.0074   1.0000
  13.400   1.3083   0.03957   0.03632   0.0117   0.0074   1.0000
  13.500   1.3025   0.04159   0.03842   0.0102   0.0074   1.0000
  13.600   1.2948   0.04501   0.04195   0.0061   0.0074   1.0000
  13.700   1.2854   0.05036   0.04742  -0.0004   0.0075   1.0000
  13.800   1.2733   0.05595   0.05312  -0.0059   0.0075   1.0000
  13.900   1.2584   0.06129   0.05855  -0.0102   0.0075   1.0000
  14.000   1.2420   0.06643   0.06376  -0.0139   0.0075   1.0000
  14.100   1.2248   0.07146   0.06884  -0.0172   0.0075   1.0000
  14.300   1.2029   0.07890   0.07636  -0.0218   0.0076   1.0000
  14.400   1.1950   0.08206   0.07955  -0.0236   0.0076   1.0000
  14.500   1.1867   0.08527   0.08279  -0.0254   0.0076   1.0000
  14.600   1.1782   0.08846   0.08601  -0.0272   0.0077   1.0000
  14.700   1.1691   0.09183   0.08941  -0.0291   0.0077   1.0000
  14.800   1.1601   0.09514   0.09276  -0.0309   0.0077   1.0000
  14.900   1.1501   0.09867   0.09631  -0.0328   0.0078   1.0000
  15.000   1.1406   0.10208   0.09975  -0.0346   0.0078   1.0000
